23684363
  -OEChem-05310800322D

 34 33  0     0  0  0  0  0  0999 V2000
    2.0000    2.7672    0.0000 Na  0  3  0  0  0  0  0  0  0  0  0  0
    8.2204   -1.6891    0.0000 O   0  0  0  0  0  0  0  0  0  0  0  0
    8.7556   -0.0418    0.0000 O   0  0  0  0  0  0  0  0  0  0  0  0
    2.5878    1.9581    0.0000 O   0  5  0  0  0  0  0  0  0  0  0  0
    3.9890    2.9762    0.0000 O   0  0  0  0  0  0  0  0  0  0  0  0
    6.2524   -0.9897    0.0000 N   0  0  0  0  0  0  0  0  0  0  0  0
    5.7524    0.5492    0.0000 C   0  0  0  0  0  0  0  0  0  0  0  0
    6.7524    0.5492    0.0000 C   0  0  0  0  0  0  0  0  0  0  0  0
    5.1646    1.3582    0.0000 C   0  0  0  0  0  0  0  0  0  0  0  0
    5.4434   -0.4019    0.0000 C   0  0  0  0  0  0  0  0  0  0  0  0
    7.0614   -0.4019    0.0000 C   0  0  0  0  0  0  0  0  0  0  0  0
    4.1701    1.2537    0.0000 C   0  0  0  0  0  0  0  0  0  0  0  0
    7.3402    1.3582    0.0000 C   0  0  0  0  0  0  0  0  0  0  0  0
    4.4923   -0.7109    0.0000 C   0  0  0  0  0  0  0  0  0  0  0  0
    8.0125   -0.7109    0.0000 C   0  0  0  0  0  0  0  0  0  0  0  0
    3.5823    2.0627    0.0000 C   0  0  0  0  0  0  0  0  0  0  0  0
    9.1714   -1.9981    0.0000 C   0  0  0  0  0  0  0  0  0  0  0  0
    9.3794   -2.9762    0.0000 C   0  0  0  0  0  0  0  0  0  0  0  0
    5.7219    1.6300    0.0000 H   0  0  0  0  0  0  0  0  0  0  0  0
    4.9937    1.9542    0.0000 H   0  0  0  0  0  0  0  0  0  0  0  0
    6.2524   -1.6097    0.0000 H   0  0  0  0  0  0  0  0  0  0  0  0
    3.6128    0.9819    0.0000 H   0  0  0  0  0  0  0  0  0  0  0  0
    4.3410    0.6577    0.0000 H   0  0  0  0  0  0  0  0  0  0  0  0
    7.8418    0.9938    0.0000 H   0  0  0  0  0  0  0  0  0  0  0  0
    7.7046    1.8598    0.0000 H   0  0  0  0  0  0  0  0  0  0  0  0
    6.8386    1.7226    0.0000 H   0  0  0  0  0  0  0  0  0  0  0  0
    4.3007   -0.1213    0.0000 H   0  0  0  0  0  0  0  0  0  0  0  0
    3.9027   -0.9025    0.0000 H   0  0  0  0  0  0  0  0  0  0  0  0
    4.6839   -1.3006    0.0000 H   0  0  0  0  0  0  0  0  0  0  0  0
    9.7911   -1.9764    0.0000 H   0  0  0  0  0  0  0  0  0  0  0  0
    9.2577   -1.3841    0.0000 H   0  0  0  0  0  0  0  0  0  0  0  0
    8.7729   -3.1051    0.0000 H   0  0  0  0  0  0  0  0  0  0  0  0
    9.5083   -3.5827    0.0000 H   0  0  0  0  0  0  0  0  0  0  0  0
    9.9858   -2.8473    0.0000 H   0  0  0  0  0  0  0  0  0  0  0  0
  2 15  1  0  0  0  0
  2 17  1  0  0  0  0
  3 15  2  0  0  0  0
  4 16  1  0  0  0  0
  5 16  2  0  0  0  0
  6 10  1  0  0  0  0
  6 11  1  0  0  0  0
  6 21  1  0  0  0  0
  7  8  1  0  0  0  0
  7  9  1  0  0  0  0
  7 10  2  0  0  0  0
  8 11  2  0  0  0  0
  8 13  1  0  0  0  0
  9 12  1  0  0  0  0
  9 19  1  0  0  0  0
  9 20  1  0  0  0  0
 10 14  1  0  0  0  0
 11 15  1  0  0  0  0
 12 16  1  0  0  0  0
 12 22  1  0  0  0  0
 12 23  1  0  0  0  0
 13 24  1  0  0  0  0
 13 25  1  0  0  0  0
 13 26  1  0  0  0  0
 14 27  1  0  0  0  0
 14 28  1  0  0  0  0
 14 29  1  0  0  0  0
 17 18  1  0  0  0  0
 17 30  1  0  0  0  0
 17 31  1  0  0  0  0
 18 32  1  0  0  0  0
 18 33  1  0  0  0  0
 18 34  1  0  0  0  0
M  CHG  2   1   1   4  -1
M  END
> <PUBCHEM_COMPOUND_CID>
23684363

> <PUBCHEM_COMPOUND_CANONICALIZED>
1

> <PUBCHEM_CACTVS_COMPLEXITY>
298

> <PUBCHEM_CACTVS_HBOND_ACCEPTOR>
5

> <PUBCHEM_CACTVS_HBOND_DONOR>
1

> <PUBCHEM_CACTVS_ROTATABLE_BOND>
6

> <PUBCHEM_CACTVS_SUBSKEYS>
AAADceByOCAAAAAAAAAAAAAAAAAAAWAAAAAAAAAAAAAAAAABgAAAHgAQAAAADAihngICiJLJlACoAwTwTASCgCAnACAAmSGwTNgKJnLAtLmHEQhk0AHY6QeY2TOegAAAAAAAAAAAAAAAAAAAAAAAAAAAAA==

> <PUBCHEM_IUPAC_OPENEYE_NAME>
sodium 3-(5-ethoxycarbonyl-2,4-dimethyl-1H-pyrrol-3-yl)propanoate

> <PUBCHEM_IUPAC_CAS_NAME>
sodium 3-(5-ethoxycarbonyl-2,4-dimethyl-1H-pyrrol-3-yl)propanoate

> <PUBCHEM_IUPAC_NAME>
sodium 3-(5-ethoxycarbonyl-2,4-dimethyl-1H-pyrrol-3-yl)propanoate

> <PUBCHEM_IUPAC_SYSTEMATIC_NAME>
sodium 3-(5-ethoxycarbonyl-2,4-dimethyl-1H-pyrrol-3-yl)propanoate

> <PUBCHEM_IUPAC_TRADITIONAL_NAME>
sodium 3-(5-carbethoxy-2,4-dimethyl-1H-pyrrol-3-yl)propionate

> <PUBCHEM_NIST_INCHI>
InChI=1/C12H17NO4.Na/c1-4-17-12(16)11-7(2)9(8(3)13-11)5-6-10(14)15;/h13H,4-6H2,1-3H3,(H,14,15);/q;+1/p-1/fC12H16NO4.Na/q-1;m

> <PUBCHEM_EXACT_MASS>
261.097703

> <PUBCHEM_MOLECULAR_FORMULA>
C12H16NNaO4

> <PUBCHEM_MOLECULAR_WEIGHT>
261.24951

> <PUBCHEM_OPENEYE_CAN_SMILES>
CCOC(=O)C1=C(C(=C(N1)C)CCC(=O)[O-])C.[Na+]

> <PUBCHEM_OPENEYE_ISO_SMILES>
CCOC(=O)C1=C(C(=C(N1)C)CCC(=O)[O-])C.[Na+]

> <PUBCHEM_CACTVS_TPSA>
82.2

> <PUBCHEM_MONOISOTOPIC_WEIGHT>
261.097703

> <PUBCHEM_TOTAL_CHARGE>
0

> <PUBCHEM_HEAVY_ATOM_COUNT>
18

> <PUBCHEM_ATOM_DEF_STEREO_COUNT>
0

> <PUBCHEM_ATOM_UDEF_STEREO_COUNT>
0

> <PUBCHEM_BOND_DEF_STEREO_COUNT>
0

> <PUBCHEM_BOND_UDEF_STEREO_COUNT>
0

> <PUBCHEM_ISOTOPIC_ATOM_COUNT>
0

> <PUBCHEM_COMPONENT_COUNT>
2

> <PUBCHEM_CACTVS_TAUTO_COUNT>
2

> <PUBCHEM_NONSTANDARDBOND>
1  4  7

> <PUBCHEM_BONDANNOTATIONS>
1  4  4
6  10  8
6  11  8
7  10  8
7  8  8
8  11  8

$$$$
23675322
  -OEChem-05310800322D

 43 45  0     1  0  0  0  0  0999 V2000
    7.0468   -1.7307    0.0000 S   0  0  0  0  0  0  0  0  0  0  0  0
    4.4487   -0.2307    0.0000 S   0  0  0  0  0  0  0  0  0  0  0  0
    3.4782    1.2638    0.0000 S   0  0  0  0  0  0  0  0  0  0  0  0
    6.1808    2.7693    0.0000 Na  0  3  0  0  0  0  0  0  0  0  0  0
    9.6267    0.4820    0.0000 O   0  0  0  0  0  0  0  0  0  0  0  0
    6.1808    1.7693    0.0000 O   0  5  0  0  0  0  0  0  0  0  0  0
    7.9128    1.7693    0.0000 O   0  0  0  0  0  0  0  0  0  0  0  0
   10.8540   -0.7212    0.0000 O   0  0  0  0  0  0  0  0  0  0  0  0
    7.9128   -0.2307    0.0000 N   0  0  0  0  0  0  0  0  0  0  0  0
    9.6267   -1.9435    0.0000 N   0  0  0  0  0  0  0  0  0  0  0  0
   12.2653   -2.1383    0.0000 N   0  0  0  0  0  0  0  0  0  0  0  0
   13.0412   -2.7693    0.0000 N   0  0  0  0  0  0  0  0  0  0  0  0
    2.6691   -0.1375    0.0000 N   0  0  0  0  0  0  0  0  0  0  0  0
   13.6241   -1.2599    0.0000 N   0  0  0  0  0  0  0  0  0  0  0  0
   13.8809   -2.2263    0.0000 N   0  0  0  0  0  0  0  0  0  0  0  0
    2.0000    0.6057    0.0000 N   0  0  0  0  0  0  0  0  0  0  0  0
    7.9128   -1.2307    0.0000 C   0  0  1  0  0  0  0  0  0  0  0  0
    8.9211   -1.2349    0.0000 C   0  0  1  0  0  0  0  0  0  0  0  0
    8.9211   -0.2266    0.0000 C   0  0  0  0  0  0  0  0  0  0  0  0
    7.0468    0.2693    0.0000 C   0  0  0  0  0  0  0  0  0  0  0  0
    6.1808   -0.2307    0.0000 C   0  0  0  0  0  0  0  0  0  0  0  0
    6.1808   -1.2307    0.0000 C   0  0  0  0  0  0  0  0  0  0  0  0
    5.3147    0.2693    0.0000 C   0  0  0  0  0  0  0  0  0  0  0  0
    7.0468    1.2693    0.0000 C   0  0  0  0  0  0  0  0  0  0  0  0
   10.5932   -1.6866    0.0000 C   0  0  0  0  0  0  0  0  0  0  0  0
   11.2988   -2.3952    0.0000 C   0  0  0  0  0  0  0  0  0  0  0  0
    3.5827    0.2693    0.0000 C   0  0  0  0  0  0  0  0  0  0  0  0
   12.6256   -1.2055    0.0000 C   0  0  0  0  0  0  0  0  0  0  0  0
    2.5000    1.4717    0.0000 C   0  0  0  0  0  0  0  0  0  0  0  0
    2.0933    2.3852    0.0000 C   0  0  0  0  0  0  0  0  0  0  0  0
    8.1311   -2.0522    0.0000 H   0  0  0  0  0  0  0  0  0  0  0  0
    8.6821   -1.8070    0.0000 H   0  0  0  0  0  0  0  0  0  0  0  0
    5.5702   -1.1231    0.0000 H   0  0  0  0  0  0  0  0  0  0  0  0
    5.9687   -1.8134    0.0000 H   0  0  0  0  0  0  0  0  0  0  0  0
    9.4650   -2.5420    0.0000 H   0  0  0  0  0  0  0  0  0  0  0  0
    5.7133    0.7442    0.0000 H   0  0  0  0  0  0  0  0  0  0  0  0
    4.9162    0.7442    0.0000 H   0  0  0  0  0  0  0  0  0  0  0  0
   10.7902   -2.7498    0.0000 H   0  0  0  0  0  0  0  0  0  0  0  0
   11.5597   -2.9576    0.0000 H   0  0  0  0  0  0  0  0  0  0  0  0
   12.2890   -0.6848    0.0000 H   0  0  0  0  0  0  0  0  0  0  0  0
    2.6597    2.6374    0.0000 H   0  0  0  0  0  0  0  0  0  0  0  0
    1.8411    2.9516    0.0000 H   0  0  0  0  0  0  0  0  0  0  0  0
    1.5269    2.1331    0.0000 H   0  0  0  0  0  0  0  0  0  0  0  0
  1 17  1  0  0  0  0
  1 22  1  0  0  0  0
  2 23  1  0  0  0  0
  2 27  1  0  0  0  0
  3 27  1  0  0  0  0
  3 29  1  0  0  0  0
  5 19  2  0  0  0  0
  6 24  1  0  0  0  0
  7 24  2  0  0  0  0
  8 25  2  0  0  0  0
  9 17  1  0  0  0  0
  9 19  1  0  0  0  0
  9 20  1  0  0  0  0
 18 10  1  1  0  0  0
 10 25  1  0  0  0  0
 10 35  1  0  0  0  0
 11 12  1  0  0  0  0
 11 26  1  0  0  0  0
 11 28  1  0  0  0  0
 12 15  2  0  0  0  0
 13 16  1  0  0  0  0
 13 27  2  0  0  0  0
 14 15  1  0  0  0  0
 14 28  2  0  0  0  0
 16 29  2  0  0  0  0
 17 18  1  0  0  0  0
 17 31  1  6  0  0  0
 18 19  1  0  0  0  0
 18 32  1  0  0  0  0
 20 21  2  0  0  0  0
 20 24  1  0  0  0  0
 21 22  1  0  0  0  0
 21 23  1  0  0  0  0
 22 33  1  0  0  0  0
 22 34  1  0  0  0  0
 23 36  1  0  0  0  0
 23 37  1  0  0  0  0
 25 26  1  0  0  0  0
 26 38  1  0  0  0  0
 26 39  1  0  0  0  0
 28 40  1  0  0  0  0
 29 30  1  0  0  0  0
 30 41  1  0  0  0  0
 30 42  1  0  0  0  0
 30 43  1  0  0  0  0
M  CHG  2   4   1   6  -1
M  END
> <PUBCHEM_COMPOUND_CID>
23675322

> <PUBCHEM_COMPOUND_CANONICALIZED>
1

> <PUBCHEM_CACTVS_COMPLEXITY>
746

> <PUBCHEM_CACTVS_HBOND_ACCEPTOR>
10

> <PUBCHEM_CACTVS_HBOND_DONOR>
1

> <PUBCHEM_CACTVS_ROTATABLE_BOND>
7

> <PUBCHEM_CACTVS_SUBSKEYS>
AAADccBz+CBgAAAAAAAAAAAAAABYAWLAAAAgAAAAAAAQAAAB4AAAHgQYAAAADCjFwgSHGAfIAAiuAgXxfAAQAYNQgJAVSIGYAECCRAggCCAUEAAAHgKwAQAAAAAAAAAAAAAAAAAAAAAAAAAAAAAAAAAAAA==

> <PUBCHEM_IUPAC_OPENEYE_NAME>
sodium (6R,7R)-3-[(5-methyl-1,3,4-thiadiazol-2-yl)sulfanylmethyl]-8-oxo-7-[[2-(tetrazol-1-yl)acetyl]amino]-5-thia-1-azabicyclo[4.2.0]oct-2-ene-2-carboxylate

> <PUBCHEM_IUPAC_CAS_NAME>
sodium (6R,7R)-3-[[(5-methyl-1,3,4-thiadiazol-2-yl)thio]methyl]-8-oxo-7-[[1-oxo-2-(1-tetrazolyl)ethyl]amino]-5-thia-1-azabicyclo[4.2.0]oct-2-ene-2-carboxylate

> <PUBCHEM_IUPAC_NAME>
sodium (6R,7R)-3-[(5-methyl-1,3,4-thiadiazol-2-yl)sulfanylmethyl]-8-oxo-7-[[2-(tetrazol-1-yl)acetyl]amino]-5-thia-1-azabicyclo[4.2.0]oct-2-ene-2-carboxylate

> <PUBCHEM_IUPAC_SYSTEMATIC_NAME>
sodium (6R,7R)-3-[(5-methyl-1,3,4-thiadiazol-2-yl)sulfanylmethyl]-8-oxo-7-[2-(1,2,3,4-tetrazol-1-yl)ethanoylamino]-5-thia-1-azabicyclo[4.2.0]oct-2-ene-2-carboxylate

> <PUBCHEM_IUPAC_TRADITIONAL_NAME>
sodium (6R,7R)-8-keto-3-[[(5-methyl-1,3,4-thiadiazol-2-yl)thio]methyl]-7-[[2-(tetrazol-1-yl)acetyl]amino]-5-thia-1-azabicyclo[4.2.0]oct-2-ene-2-carboxylate

> <PUBCHEM_NIST_INCHI>
InChI=1/C14H14N8O4S3.Na/c1-6-17-18-14(29-6)28-4-7-3-27-12-9(11(24)22(12)10(7)13(25)26)16-8(23)2-21-5-15-19-20-21;/h5,9,12H,2-4H2,1H3,(H,16,23)(H,25,26);/q;+1/p-1/t9-,12-;/m1./s1/fC14H13N8O4S3.Na/h16H;/q-1;m

> <PUBCHEM_EXACT_MASS>
476.011958

> <PUBCHEM_MOLECULAR_FORMULA>
C14H13N8NaO4S3

> <PUBCHEM_MOLECULAR_WEIGHT>
476.48899

> <PUBCHEM_OPENEYE_CAN_SMILES>
CC1=NN=C(S1)SCC2=C(N3C(C(C3=O)NC(=O)CN4C=NN=N4)SC2)C(=O)[O-].[Na+]

> <PUBCHEM_OPENEYE_ISO_SMILES>
CC1=NN=C(S1)SCC2=C(N3[C@@H]([C@@H](C3=O)NC(=O)CN4C=NN=N4)SC2)C(=O)[O-].[Na+]

> <PUBCHEM_CACTVS_TPSA>
159

> <PUBCHEM_MONOISOTOPIC_WEIGHT>
476.011958

> <PUBCHEM_TOTAL_CHARGE>
0

> <PUBCHEM_HEAVY_ATOM_COUNT>
30

> <PUBCHEM_ATOM_DEF_STEREO_COUNT>
2

> <PUBCHEM_ATOM_UDEF_STEREO_COUNT>
0

> <PUBCHEM_BOND_DEF_STEREO_COUNT>
0

> <PUBCHEM_BOND_UDEF_STEREO_COUNT>
0

> <PUBCHEM_ISOTOPIC_ATOM_COUNT>
0

> <PUBCHEM_COMPONENT_COUNT>
2

> <PUBCHEM_CACTVS_TAUTO_COUNT>
2

> <PUBCHEM_NONSTANDARDBOND>
4  6  7

> <PUBCHEM_BONDANNOTATIONS>
18  10  5
11  12  8
11  28  8
12  15  8
13  16  8
13  27  8
14  15  8
14  28  8
16  29  8
17  31  6
3  27  8
3  29  8
4  6  4

$$$$
